output/2_TAP2_1/Cargas_BT_DO04_2_TAP2_1.dss
New "Load.BT_1284_M1" bus1="UC14865.2.3.4" phases=2 conn=delta model=2 kv=0.38 kw = 303.2830634268095 pf=0.92 status=variable vmaxpu=1.5 vminpu=0.93 daily="RES_2_DO" 
New "Load.BT_1284_M2" bus1="UC14865.2.3.4" phases=2 conn=delta model=3 kv=0.38 kw = 303.2830634268095 pf=0.92 status=variable vmaxpu=1.5 vminpu=0.93 daily="RES_2_DO"
 
New "Load.BT_7585_M1" bus1="UC15172.1.4" phases=1 conn=delta model=2 kv=0.22 kw = 220.02888915278336 pf=0.92 status=variable vmaxpu=1.5 vminpu=0.93 daily="RES_2_DO" 
New "Load.BT_7585_M2" bus1="UC15172.1.4" phases=1 conn=delta model=3 kv=0.22 kw = 220.02888915278336 pf=0.92 status=variable vmaxpu=1.5 vminpu=0.93 daily="RES_2_DO"
 
New "Load.BT_1321_M1" bus1="UC15176.1.2.3.4" phases=3 conn=delta model=2 kv=0.38 kw = 0.0 pf=0.92 status=variable vmaxpu=1.5 vminpu=0.93 daily="COM_13_DO" 
New "Load.BT_1321_M2" bus1="UC15176.1.2.3.4" phases=3 conn=delta model=3 kv=0.38 kw = 0.0 pf=0.92 status=variable vmaxpu=1.5 vminpu=0.93 daily="COM_13_DO"
 
New "Load.BT_1284_M1" bus1="UC14865.3.1.4" phases=2 conn=delta model=2 kv=0.38 kw = 178.4018020157703 pf=0.92 status=variable vmaxpu=1.5 vminpu=0.93 daily="RES_2_DO" 
New "Load.BT_1284_M2" bus1="UC14865.3.1.4" phases=2 conn=delta model=3 kv=0.38 kw = 178.4018020157703 pf=0.92 status=variable vmaxpu=1.5 vminpu=0.93 daily="RES_2_DO"
 
New "Load.BT_7553_M1" bus1="UC20061.1.2.3.4" phases=3 conn=delta model=2 kv=0.38 kw = 0.0 pf=0.92 status=variable vmaxpu=1.5 vminpu=0.93 daily="RES_7_DO" 
New "Load.BT_7553_M2" bus1="UC20061.1.2.3.4" phases=3 conn=delta model=3 kv=0.38 kw = 0.0 pf=0.92 status=variable vmaxpu=1.5 vminpu=0.93 daily="RES_7_DO"
 
New "Load.BT_2523_M1" bus1="UC20136.3.4" phases=1 conn=delta model=2 kv=0.22 kw = 0.0 pf=0.92 status=variable vmaxpu=1.5 vminpu=0.93 daily="RES_3_DO" 
New "Load.BT_2523_M2" bus1="UC20136.3.4" phases=1 conn=delta model=3 kv=0.22 kw = 0.0 pf=0.92 status=variable vmaxpu=1.5 vminpu=0.93 daily="RES_3_DO"
 
New "Load.BT_1656_M1" bus1="UC1545.1.4" phases=1 conn=delta model=2 kv=0.22 kw = 0.0 pf=0.92 status=variable vmaxpu=1.5 vminpu=0.93 daily="RES_3_DO" 
New "Load.BT_1656_M2" bus1="UC1545.1.4" phases=1 conn=delta model=3 kv=0.22 kw = 0.0 pf=0.92 status=variable vmaxpu=1.5 vminpu=0.93 daily="RES_3_DO"
 
New "Load.BT_446_M1" bus1="UC16148.1.2.3.4" phases=3 conn=delta model=2 kv=0.38 kw = 0.0 pf=0.92 status=variable vmaxpu=1.5 vminpu=0.93 daily="RES_3_DO" 
New "Load.BT_446_M2" bus1="UC16148.1.2.3.4" phases=3 conn=delta model=3 kv=0.38 kw = 0.0 pf=0.92 status=variable vmaxpu=1.5 vminpu=0.93 daily="RES_3_DO"
 
New "Load.BT_7293_M1" bus1="UC20138.2.3.4" phases=2 conn=delta model=2 kv=0.38 kw = 0.0 pf=0.92 status=variable vmaxpu=1.5 vminpu=0.93 daily="RES_7_DO" 
New "Load.BT_7293_M2" bus1="UC20138.2.3.4" phases=2 conn=delta model=3 kv=0.38 kw = 0.0 pf=0.92 status=variable vmaxpu=1.5 vminpu=0.93 daily="RES_7_DO"
 
New "Load.BT_1288_M1" bus1="UC8495.1.4" phases=1 conn=delta model=2 kv=0.22 kw = 0.0 pf=0.92 status=variable vmaxpu=1.5 vminpu=0.93 daily="RES_7_DO" 
New "Load.BT_1288_M2" bus1="UC8495.1.4" phases=1 conn=delta model=3 kv=0.22 kw = 0.0 pf=0.92 status=variable vmaxpu=1.5 vminpu=0.93 daily="RES_7_DO"
 
New "Load.BT_2743_M1" bus1="UC6417.2.4" phases=1 conn=delta model=2 kv=0.22 kw = 0.0 pf=0.92 status=variable vmaxpu=1.5 vminpu=0.93 daily="RES_3_DO" 
New "Load.BT_2743_M2" bus1="UC6417.2.4" phases=1 conn=delta model=3 kv=0.22 kw = 0.0 pf=0.92 status=variable vmaxpu=1.5 vminpu=0.93 daily="RES_3_DO"
 
New "Load.BT_7794_M1" bus1="UC16133.1.4" phases=1 conn=delta model=2 kv=0.22 kw = 0.0 pf=0.92 status=variable vmaxpu=1.5 vminpu=0.93 daily="RES_7_DO" 
New "Load.BT_7794_M2" bus1="UC16133.1.4" phases=1 conn=delta model=3 kv=0.22 kw = 0.0 pf=0.92 status=variable vmaxpu=1.5 vminpu=0.93 daily="RES_7_DO"
 
New "Load.BT_660_M1" bus1="UC15632.3.4" phases=1 conn=delta model=2 kv=0.22 kw = 0.0 pf=0.92 status=variable vmaxpu=1.5 vminpu=0.93 daily="RES_3_DO" 
New "Load.BT_660_M2" bus1="UC15632.3.4" phases=1 conn=delta model=3 kv=0.22 kw = 0.0 pf=0.92 status=variable vmaxpu=1.5 vminpu=0.93 daily="RES_3_DO"
 
New "Load.BT_8598_M1" bus1="UC16137.1.2.3.4" phases=3 conn=delta model=2 kv=0.38 kw = 0.0 pf=0.92 status=variable vmaxpu=1.5 vminpu=0.93 daily="RES_3_DO" 
New "Load.BT_8598_M2" bus1="UC16137.1.2.3.4" phases=3 conn=delta model=3 kv=0.38 kw = 0.0 pf=0.92 status=variable vmaxpu=1.5 vminpu=0.93 daily="RES_3_DO"
 
New "Load.BT_8649_M1" bus1="UC16131.1.2.3.4" phases=3 conn=delta model=2 kv=0.38 kw = 0.0 pf=0.92 status=variable vmaxpu=1.5 vminpu=0.93 daily="RES_3_DO" 
New "Load.BT_8649_M2" bus1="UC16131.1.2.3.4" phases=3 conn=delta model=3 kv=0.38 kw = 0.0 pf=0.92 status=variable vmaxpu=1.5 vminpu=0.93 daily="RES_3_DO"
 
New "Load.BT_8569_M1" bus1="UC20135.1.2.4" phases=2 conn=delta model=2 kv=0.38 kw = 0.0 pf=0.92 status=variable vmaxpu=1.5 vminpu=0.93 daily="RES_3_DO" 
New "Load.BT_8569_M2" bus1="UC20135.1.2.4" phases=2 conn=delta model=3 kv=0.38 kw = 0.0 pf=0.92 status=variable vmaxpu=1.5 vminpu=0.93 daily="RES_3_DO"
 
New "Load.BT_856_M1" bus1="UC1889.3.4" phases=1 conn=delta model=2 kv=0.22 kw = 0.0 pf=0.92 status=variable vmaxpu=1.5 vminpu=0.93 daily="RES_7_DO" 
New "Load.BT_856_M2" bus1="UC1889.3.4" phases=1 conn=delta model=3 kv=0.22 kw = 0.0 pf=0.92 status=variable vmaxpu=1.5 vminpu=0.93 daily="RES_7_DO"
 
New "Load.BT_2601_M1" bus1="UC15849.2.4" phases=1 conn=delta model=2 kv=0.22 kw = 23.257077343576203 pf=0.92 status=variable vmaxpu=1.5 vminpu=0.93 daily="RES_5_DO" 
New "Load.BT_2601_M2" bus1="UC15849.2.4" phases=1 conn=delta model=3 kv=0.22 kw = 23.257077343576203 pf=0.92 status=variable vmaxpu=1.5 vminpu=0.93 daily="RES_5_DO"
 
New "Load.BT_7733_M1" bus1="UC20092.2.3.4" phases=2 conn=delta model=2 kv=0.38 kw = 403.49887425886936 pf=0.92 status=variable vmaxpu=1.5 vminpu=0.93 daily="RES_3_DO" 
New "Load.BT_7733_M2" bus1="UC20092.2.3.4" phases=2 conn=delta model=3 kv=0.38 kw = 403.49887425886936 pf=0.92 status=variable vmaxpu=1.5 vminpu=0.93 daily="RES_3_DO"
 
New "Load.BT_7733_M1" bus1="UC20093.3.1.4" phases=2 conn=delta model=2 kv=0.38 kw = 4.788966823202087 pf=0.92 status=variable vmaxpu=1.5 vminpu=0.93 daily="RES_7_DO" 
New "Load.BT_7733_M2" bus1="UC20093.3.1.4" phases=2 conn=delta model=3 kv=0.38 kw = 4.788966823202087 pf=0.92 status=variable vmaxpu=1.5 vminpu=0.93 daily="RES_7_DO"
 
New "Load.BT_7734_M1" bus1="UC20094.2.3.4" phases=2 conn=delta model=2 kv=0.38 kw = 86.20140281763757 pf=0.92 status=variable vmaxpu=1.5 vminpu=0.93 daily="RES_7_DO" 
New "Load.BT_7734_M2" bus1="UC20094.2.3.4" phases=2 conn=delta model=3 kv=0.38 kw = 86.20140281763757 pf=0.92 status=variable vmaxpu=1.5 vminpu=0.93 daily="RES_7_DO"
 
New "Load.BT_2245_M1" bus1="UC20095.1.2.4" phases=2 conn=delta model=2 kv=0.38 kw = 199.4825895212388 pf=0.92 status=variable vmaxpu=1.5 vminpu=0.93 daily="RES_3_DO" 
New "Load.BT_2245_M2" bus1="UC20095.1.2.4" phases=2 conn=delta model=3 kv=0.38 kw = 199.4825895212388 pf=0.92 status=variable vmaxpu=1.5 vminpu=0.93 daily="RES_3_DO"
 
New "Load.BT_1794_M1" bus1="UC15505.3.4" phases=1 conn=delta model=2 kv=0.22 kw = 121.90789804410971 pf=0.92 status=variable vmaxpu=1.5 vminpu=0.93 daily="RES_2_DO" 
New "Load.BT_1794_M2" bus1="UC15505.3.4" phases=1 conn=delta model=3 kv=0.22 kw = 121.90789804410971 pf=0.92 status=variable vmaxpu=1.5 vminpu=0.93 daily="RES_2_DO"
 
New "Load.BT_657_M1" bus1="UC14583.1.4" phases=1 conn=delta model=2 kv=0.22 kw = 422.2175981039897 pf=0.92 status=variable vmaxpu=1.5 vminpu=0.93 daily="RES_2_DO" 
New "Load.BT_657_M2" bus1="UC14583.1.4" phases=1 conn=delta model=3 kv=0.22 kw = 422.2175981039897 pf=0.92 status=variable vmaxpu=1.5 vminpu=0.93 daily="RES_2_DO"
 
New "Load.BT_1284_M1" bus1="UC13787.3.1.4" phases=2 conn=delta model=2 kv=0.38 kw = 255.70924955593745 pf=0.92 status=variable vmaxpu=1.5 vminpu=0.93 daily="RES_2_DO" 
New "Load.BT_1284_M2" bus1="UC13787.3.1.4" phases=2 conn=delta model=3 kv=0.38 kw = 255.70924955593745 pf=0.92 status=variable vmaxpu=1.5 vminpu=0.93 daily="RES_2_DO"
 
New "Load.BT_7306_M1" bus1="UC15143.3.4" phases=1 conn=delta model=2 kv=0.22 kw = 422.2175981039897 pf=0.92 status=variable vmaxpu=1.5 vminpu=0.93 daily="RES_2_DO" 
New "Load.BT_7306_M2" bus1="UC15143.3.4" phases=1 conn=delta model=3 kv=0.22 kw = 422.2175981039897 pf=0.92 status=variable vmaxpu=1.5 vminpu=0.93 daily="RES_2_DO"
 
New "Load.BT_7829_M1" bus1="UC15152.2.4" phases=1 conn=delta model=2 kv=0.22 kw = 529.2586793134519 pf=0.92 status=variable vmaxpu=1.5 vminpu=0.93 daily="RES_2_DO" 
New "Load.BT_7829_M2" bus1="UC15152.2.4" phases=1 conn=delta model=3 kv=0.22 kw = 529.2586793134519 pf=0.92 status=variable vmaxpu=1.5 vminpu=0.93 daily="RES_2_DO"
 
New "Load.BT_2405_M1" bus1="UC4970.2.3.4" phases=2 conn=delta model=2 kv=0.38 kw = 2008.1901916144823 pf=0.92 status=variable vmaxpu=1.5 vminpu=0.93 daily="RES_4_DO" 
New "Load.BT_2405_M2" bus1="UC4970.2.3.4" phases=2 conn=delta model=3 kv=0.38 kw = 2008.1901916144823 pf=0.92 status=variable vmaxpu=1.5 vminpu=0.93 daily="RES_4_DO"
 
New "Load.BT_2823_M1" bus1="UC4516.2.4" phases=1 conn=delta model=2 kv=0.22 kw = 163.53498518112278 pf=0.92 status=variable vmaxpu=1.5 vminpu=0.93 daily="RES_2_DO" 
New "Load.BT_2823_M2" bus1="UC4516.2.4" phases=1 conn=delta model=3 kv=0.22 kw = 163.53498518112278 pf=0.92 status=variable vmaxpu=1.5 vminpu=0.93 daily="RES_2_DO"
 
New "Load.BT_7463_M1" bus1="UC4971.2.3.4" phases=2 conn=delta model=2 kv=0.38 kw = 535.2700352306348 pf=0.92 status=variable vmaxpu=1.5 vminpu=0.93 daily="RES_1_DO" 
New "Load.BT_7463_M2" bus1="UC4971.2.3.4" phases=2 conn=delta model=3 kv=0.38 kw = 535.2700352306348 pf=0.92 status=variable vmaxpu=1.5 vminpu=0.93 daily="RES_1_DO"
 
New "Load.BT_2049_M1" bus1="UC4838.2.3.4" phases=2 conn=delta model=2 kv=0.38 kw = 399.4262111380396 pf=0.92 status=variable vmaxpu=1.5 vminpu=0.93 daily="RES_13_DO" 
New "Load.BT_2049_M2" bus1="UC4838.2.3.4" phases=2 conn=delta model=3 kv=0.38 kw = 399.4262111380396 pf=0.92 status=variable vmaxpu=1.5 vminpu=0.93 daily="RES_13_DO"
 
New "Load.BT_874_M1" bus1="UC13502.1.2.3.4" phases=3 conn=delta model=2 kv=0.38 kw = 5694.760466151903 pf=0.92 status=variable vmaxpu=1.5 vminpu=0.93 daily="RES_13_DO" 
New "Load.BT_874_M2" bus1="UC13502.1.2.3.4" phases=3 conn=delta model=3 kv=0.38 kw = 5694.760466151903 pf=0.92 status=variable vmaxpu=1.5 vminpu=0.93 daily="RES_13_DO"
 
New "Load.BT_893_M1" bus1="UC9729.1.2.3.4" phases=3 conn=delta model=2 kv=0.38 kw = 1340.8195811853188 pf=0.92 status=variable vmaxpu=1.5 vminpu=0.93 daily="COM_1_DO" 
New "Load.BT_893_M2" bus1="UC9729.1.2.3.4" phases=3 conn=delta model=3 kv=0.38 kw = 1340.8195811853188 pf=0.92 status=variable vmaxpu=1.5 vminpu=0.93 daily="COM_1_DO"
 
New "Load.BT_6901_M1" bus1="UC15134.3.4" phases=1 conn=delta model=2 kv=0.22 kw = 636.2997605229141 pf=0.92 status=variable vmaxpu=1.5 vminpu=0.93 daily="RES_2_DO" 
New "Load.BT_6901_M2" bus1="UC15134.3.4" phases=1 conn=delta model=3 kv=0.22 kw = 636.2997605229141 pf=0.92 status=variable vmaxpu=1.5 vminpu=0.93 daily="RES_2_DO"
 
New "Load.BT_2271_M1" bus1="UC3269.2.4" phases=1 conn=delta model=2 kv=0.22 kw = 23.78690693543604 pf=0.92 status=variable vmaxpu=1.5 vminpu=0.93 daily="RES_2_DO" 
New "Load.BT_2271_M2" bus1="UC3269.2.4" phases=1 conn=delta model=3 kv=0.22 kw = 23.78690693543604 pf=0.92 status=variable vmaxpu=1.5 vminpu=0.93 daily="RES_2_DO"
 
New "Load.BT_363_M1" bus1="UC8092.3.4" phases=1 conn=delta model=2 kv=0.22 kw = 287.8085114054167 pf=0.92 status=variable vmaxpu=1.5 vminpu=0.93 daily="RES_1_DO" 
New "Load.BT_363_M2" bus1="UC8092.3.4" phases=1 conn=delta model=3 kv=0.22 kw = 287.8085114054167 pf=0.92 status=variable vmaxpu=1.5 vminpu=0.93 daily="RES_1_DO"
 
New "Load.BT_1388_M1" bus1="UC16119.1.2.3.4" phases=3 conn=delta model=2 kv=0.38 kw = 0.0 pf=0.92 status=variable vmaxpu=1.5 vminpu=0.93 daily="RES_3_DO" 
New "Load.BT_1388_M2" bus1="UC16119.1.2.3.4" phases=3 conn=delta model=3 kv=0.38 kw = 0.0 pf=0.92 status=variable vmaxpu=1.5 vminpu=0.93 daily="RES_3_DO"
 
New "Load.BT_7601_M1" bus1="UC14406.1.4" phases=1 conn=delta model=2 kv=0.22 kw = 0.0 pf=0.92 status=variable vmaxpu=1.5 vminpu=0.93 daily="RES_3_DO" 
New "Load.BT_7601_M2" bus1="UC14406.1.4" phases=1 conn=delta model=3 kv=0.22 kw = 0.0 pf=0.92 status=variable vmaxpu=1.5 vminpu=0.93 daily="RES_3_DO"
 
New "Load.BT_984_M1" bus1="UC3585.1.2.3.4" phases=3 conn=delta model=2 kv=0.38 kw = 0.0 pf=0.92 status=variable vmaxpu=1.5 vminpu=0.93 daily="RES_3_DO" 
New "Load.BT_984_M2" bus1="UC3585.1.2.3.4" phases=3 conn=delta model=3 kv=0.38 kw = 0.0 pf=0.92 status=variable vmaxpu=1.5 vminpu=0.93 daily="RES_3_DO"
 
New "Load.BT_6510_M1" bus1="UC16127.1.4" phases=1 conn=delta model=2 kv=0.22 kw = 0.0 pf=0.92 status=variable vmaxpu=1.5 vminpu=0.93 daily="RES_7_DO" 
New "Load.BT_6510_M2" bus1="UC16127.1.4" phases=1 conn=delta model=3 kv=0.22 kw = 0.0 pf=0.92 status=variable vmaxpu=1.5 vminpu=0.93 daily="RES_7_DO"
 
New "Load.BT_2175_M1" bus1="UC20134.1.2.3.4" phases=3 conn=delta model=2 kv=0.38 kw = 0.0 pf=0.92 status=variable vmaxpu=1.5 vminpu=0.93 daily="RES_7_DO" 
New "Load.BT_2175_M2" bus1="UC20134.1.2.3.4" phases=3 conn=delta model=3 kv=0.38 kw = 0.0 pf=0.92 status=variable vmaxpu=1.5 vminpu=0.93 daily="RES_7_DO"
 
New "Load.BT_6508_M1" bus1="UC15833.1.2.4" phases=2 conn=delta model=2 kv=0.38 kw = 80.6939751603972 pf=0.92 status=variable vmaxpu=1.5 vminpu=0.93 daily="RES_1_DO" 
New "Load.BT_6508_M2" bus1="UC15833.1.2.4" phases=2 conn=delta model=3 kv=0.38 kw = 80.6939751603972 pf=0.92 status=variable vmaxpu=1.5 vminpu=0.93 daily="RES_1_DO"
 
New "Load.BT_2830_M1" bus1="UC3356.1.4" phases=1 conn=delta model=2 kv=0.22 kw = 344.9101505638226 pf=0.92 status=variable vmaxpu=1.5 vminpu=0.93 daily="RES_2_DO" 
New "Load.BT_2830_M2" bus1="UC3356.1.4" phases=1 conn=delta model=3 kv=0.22 kw = 344.9101505638226 pf=0.92 status=variable vmaxpu=1.5 vminpu=0.93 daily="RES_2_DO"
 
New "Load.BT_2830_M1" bus1="UC3356.2.4" phases=1 conn=delta model=2 kv=0.22 kw = 10.829850402319124 pf=0.92 status=variable vmaxpu=1.5 vminpu=0.93 daily="RES_12_DO" 
New "Load.BT_2830_M2" bus1="UC3356.2.4" phases=1 conn=delta model=3 kv=0.22 kw = 10.829850402319124 pf=0.92 status=variable vmaxpu=1.5 vminpu=0.93 daily="RES_12_DO"
 
New "Load.BT_7605_M1" bus1="UC11738.3.4" phases=1 conn=delta model=2 kv=0.22 kw = 234.89648117011964 pf=0.92 status=variable vmaxpu=1.5 vminpu=0.93 daily="RES_5_DO" 
New "Load.BT_7605_M2" bus1="UC11738.3.4" phases=1 conn=delta model=3 kv=0.22 kw = 234.89648117011964 pf=0.92 status=variable vmaxpu=1.5 vminpu=0.93 daily="RES_5_DO"
 
New "Load.BT_7725_M1" bus1="UC20089.3.4" phases=1 conn=delta model=2 kv=0.22 kw = 26.760270302365548 pf=0.92 status=variable vmaxpu=1.5 vminpu=0.93 daily="RES_2_DO" 
New "Load.BT_7725_M2" bus1="UC20089.3.4" phases=1 conn=delta model=3 kv=0.22 kw = 26.760270302365548 pf=0.92 status=variable vmaxpu=1.5 vminpu=0.93 daily="RES_2_DO"
 
New "Load.BT_2519_M1" bus1="UC15842.2.4" phases=1 conn=delta model=2 kv=0.22 kw = 457.90321685557086 pf=0.92 status=variable vmaxpu=1.5 vminpu=0.93 daily="RES_3_DO" 
New "Load.BT_2519_M2" bus1="UC15842.2.4" phases=1 conn=delta model=3 kv=0.22 kw = 457.90321685557086 pf=0.92 status=variable vmaxpu=1.5 vminpu=0.93 daily="RES_3_DO"
 
New "Load.BT_6668_M1" bus1="UC15843.2.3.4" phases=2 conn=delta model=2 kv=0.38 kw = 13.448995860066201 pf=0.92 status=variable vmaxpu=1.5 vminpu=0.93 daily="RES_1_DO" 
New "Load.BT_6668_M2" bus1="UC15843.2.3.4" phases=2 conn=delta model=3 kv=0.38 kw = 13.448995860066201 pf=0.92 status=variable vmaxpu=1.5 vminpu=0.93 daily="RES_1_DO"
 
New "Load.BT_7732_M1" bus1="UC20090.2.3.4" phases=2 conn=delta model=2 kv=0.38 kw = 18.952238204058464 pf=0.92 status=variable vmaxpu=1.5 vminpu=0.93 daily="RES_12_DO" 
New "Load.BT_7732_M2" bus1="UC20090.2.3.4" phases=2 conn=delta model=3 kv=0.38 kw = 18.952238204058464 pf=0.92 status=variable vmaxpu=1.5 vminpu=0.93 daily="RES_12_DO"
 
New "Load.BT_7733_M1" bus1="UC20091.2.3.4" phases=2 conn=delta model=2 kv=0.38 kw = 295.3648822634178 pf=0.92 status=variable vmaxpu=1.5 vminpu=0.93 daily="RES_5_DO" 
New "Load.BT_7733_M2" bus1="UC20091.2.3.4" phases=2 conn=delta model=3 kv=0.38 kw = 295.3648822634178 pf=0.92 status=variable vmaxpu=1.5 vminpu=0.93 daily="RES_5_DO"
 
New "Load.BT_2860_M1" bus1="UC2244.1.4" phases=1 conn=delta model=2 kv=0.22 kw = 631.4458484902832 pf=0.92 status=variable vmaxpu=1.5 vminpu=0.93 daily="RES_13_DO" 
New "Load.BT_2860_M2" bus1="UC2244.1.4" phases=1 conn=delta model=3 kv=0.22 kw = 631.4458484902832 pf=0.92 status=variable vmaxpu=1.5 vminpu=0.93 daily="RES_13_DO"
 
New "Load.BT_893_M1" bus1="UC9729.3.4" phases=1 conn=delta model=2 kv=0.22 kw = 310.23477894242706 pf=0.92 status=variable vmaxpu=1.5 vminpu=0.93 daily="COM_1_DO" 
New "Load.BT_893_M2" bus1="UC9729.3.4" phases=1 conn=delta model=3 kv=0.22 kw = 310.23477894242706 pf=0.92 status=variable vmaxpu=1.5 vminpu=0.93 daily="COM_1_DO"
 
New "Load.BT_893_M1" bus1="UC9729.2.4" phases=1 conn=delta model=2 kv=0.22 kw = 349.06716596136243 pf=0.92 status=variable vmaxpu=1.5 vminpu=0.93 daily="RES_10_DO" 
New "Load.BT_893_M2" bus1="UC9729.2.4" phases=1 conn=delta model=3 kv=0.22 kw = 349.06716596136243 pf=0.92 status=variable vmaxpu=1.5 vminpu=0.93 daily="RES_10_DO"
 
New "Load.BT_1939_M1" bus1="UC20043.2.3.4" phases=2 conn=delta model=2 kv=0.38 kw = 276.522793124444 pf=0.92 status=variable vmaxpu=1.5 vminpu=0.93 daily="RES_2_DO" 
New "Load.BT_1939_M2" bus1="UC20043.2.3.4" phases=2 conn=delta model=3 kv=0.38 kw = 276.522793124444 pf=0.92 status=variable vmaxpu=1.5 vminpu=0.93 daily="RES_2_DO"
 
New "Load.BT_8375_M1" bus1="UC4987.1.2.4" phases=2 conn=delta model=2 kv=0.38 kw = 121.90789804410971 pf=0.92 status=variable vmaxpu=1.5 vminpu=0.93 daily="RES_2_DO" 
New "Load.BT_8375_M2" bus1="UC4987.1.2.4" phases=2 conn=delta model=3 kv=0.38 kw = 121.90789804410971 pf=0.92 status=variable vmaxpu=1.5 vminpu=0.93 daily="RES_2_DO"
 
New "Load.BT_7746_M1" bus1="UC2758.3.4" phases=1 conn=delta model=2 kv=0.22 kw = 186.7697061048814 pf=0.92 status=variable vmaxpu=1.5 vminpu=0.93 daily="RES_7_DO" 
New "Load.BT_7746_M2" bus1="UC2758.3.4" phases=1 conn=delta model=3 kv=0.22 kw = 186.7697061048814 pf=0.92 status=variable vmaxpu=1.5 vminpu=0.93 daily="RES_7_DO"
 
New "Load.BT_830_M1" bus1="UC2488.1.4" phases=1 conn=delta model=2 kv=0.22 kw = 300.30970005988 pf=0.92 status=variable vmaxpu=1.5 vminpu=0.93 daily="RES_2_DO" 
New "Load.BT_830_M2" bus1="UC2488.1.4" phases=1 conn=delta model=3 kv=0.22 kw = 300.30970005988 pf=0.92 status=variable vmaxpu=1.5 vminpu=0.93 daily="RES_2_DO"
 
New "Load.BT_830_M1" bus1="UC2488.2.4" phases=1 conn=delta model=2 kv=0.22 kw = 365.7236941323291 pf=0.92 status=variable vmaxpu=1.5 vminpu=0.93 daily="RES_2_DO" 
New "Load.BT_830_M2" bus1="UC2488.2.4" phases=1 conn=delta model=3 kv=0.22 kw = 365.7236941323291 pf=0.92 status=variable vmaxpu=1.5 vminpu=0.93 daily="RES_2_DO"
 
New "Load.BT_830_M1" bus1="UC2488.3.4" phases=1 conn=delta model=2 kv=0.22 kw = 202.18870895120634 pf=0.92 status=variable vmaxpu=1.5 vminpu=0.93 daily="RES_2_DO" 
New "Load.BT_830_M2" bus1="UC2488.3.4" phases=1 conn=delta model=3 kv=0.22 kw = 202.18870895120634 pf=0.92 status=variable vmaxpu=1.5 vminpu=0.93 daily="RES_2_DO"
 
New "Load.BT_1284_M1" bus1="UC14865.2.3.4" phases=2 conn=delta model=2 kv=0.38 kw = 345.89286858074365 pf=0.92 status=variable vmaxpu=1.5 vminpu=0.93 daily="RES_11_DO" 
New "Load.BT_1284_M2" bus1="UC14865.2.3.4" phases=2 conn=delta model=3 kv=0.38 kw = 345.89286858074365 pf=0.92 status=variable vmaxpu=1.5 vminpu=0.93 daily="RES_11_DO"
 
New "Load.BT_7814_M1" bus1="UC15091.1.4" phases=1 conn=delta model=2 kv=0.22 kw = 163.53498518112278 pf=0.92 status=variable vmaxpu=1.5 vminpu=0.93 daily="RES_2_DO" 
New "Load.BT_7814_M2" bus1="UC15091.1.4" phases=1 conn=delta model=3 kv=0.22 kw = 163.53498518112278 pf=0.92 status=variable vmaxpu=1.5 vminpu=0.93 daily="RES_2_DO"
 
New "Load.BT_6653_M1" bus1="UC11683.2.4" phases=1 conn=delta model=2 kv=0.22 kw = 294.362973326021 pf=0.92 status=variable vmaxpu=1.5 vminpu=0.93 daily="RES_2_DO" 
New "Load.BT_6653_M2" bus1="UC11683.2.4" phases=1 conn=delta model=3 kv=0.22 kw = 294.362973326021 pf=0.92 status=variable vmaxpu=1.5 vminpu=0.93 daily="RES_2_DO"
 
New "Load.BT_6786_M1" bus1="UC9221.1.4" phases=1 conn=delta model=2 kv=0.22 kw = 333.01669709610456 pf=0.92 status=variable vmaxpu=1.5 vminpu=0.93 daily="RES_2_DO" 
New "Load.BT_6786_M2" bus1="UC9221.1.4" phases=1 conn=delta model=3 kv=0.22 kw = 333.01669709610456 pf=0.92 status=variable vmaxpu=1.5 vminpu=0.93 daily="RES_2_DO"
 
New "Load.BT_7897_M1" bus1="UC3241.3.4" phases=1 conn=delta model=2 kv=0.22 kw = 228.51439814783652 pf=0.92 status=variable vmaxpu=1.5 vminpu=0.93 daily="COM_1_DO" 
New "Load.BT_7897_M2" bus1="UC3241.3.4" phases=1 conn=delta model=3 kv=0.22 kw = 228.51439814783652 pf=0.92 status=variable vmaxpu=1.5 vminpu=0.93 daily="COM_1_DO"
 
New "Load.BT_6905_M1" bus1="UC15112.3.4" phases=1 conn=delta model=2 kv=0.22 kw = 357.74328987776096 pf=0.92 status=variable vmaxpu=1.5 vminpu=0.93 daily="RES_1_DO" 
New "Load.BT_6905_M2" bus1="UC15112.3.4" phases=1 conn=delta model=3 kv=0.22 kw = 357.74328987776096 pf=0.92 status=variable vmaxpu=1.5 vminpu=0.93 daily="RES_1_DO"
 
New "Load.BT_7836_M1" bus1="UC16108.3.4" phases=1 conn=delta model=2 kv=0.22 kw = 0.0 pf=0.92 status=variable vmaxpu=1.5 vminpu=0.93 daily="RES_7_DO" 
New "Load.BT_7836_M2" bus1="UC16108.3.4" phases=1 conn=delta model=3 kv=0.22 kw = 0.0 pf=0.92 status=variable vmaxpu=1.5 vminpu=0.93 daily="RES_7_DO"
 
New "Load.BT_2994_M1" bus1="UC20129.3.4" phases=1 conn=delta model=2 kv=0.22 kw = 0.0 pf=0.92 status=variable vmaxpu=1.5 vminpu=0.93 daily="RES_7_DO" 
New "Load.BT_2994_M2" bus1="UC20129.3.4" phases=1 conn=delta model=3 kv=0.22 kw = 0.0 pf=0.92 status=variable vmaxpu=1.5 vminpu=0.93 daily="RES_7_DO"
 
New "Load.BT_2600_M1" bus1="UC16111.2.4" phases=1 conn=delta model=2 kv=0.22 kw = 0.0 pf=0.92 status=variable vmaxpu=1.5 vminpu=0.93 daily="RES_7_DO" 
New "Load.BT_2600_M2" bus1="UC16111.2.4" phases=1 conn=delta model=3 kv=0.22 kw = 0.0 pf=0.92 status=variable vmaxpu=1.5 vminpu=0.93 daily="RES_7_DO"
 
New "Load.BT_8384_M1" bus1="UC3883.1.4" phases=1 conn=delta model=2 kv=0.22 kw = 0.0 pf=0.92 status=variable vmaxpu=1.5 vminpu=0.93 daily="COM_5_DO" 
New "Load.BT_8384_M2" bus1="UC3883.1.4" phases=1 conn=delta model=3 kv=0.22 kw = 0.0 pf=0.92 status=variable vmaxpu=1.5 vminpu=0.93 daily="COM_5_DO"
 
New "Load.BT_8384_M1" bus1="UC3883.2.4" phases=1 conn=delta model=2 kv=0.22 kw = 0.0 pf=0.92 status=variable vmaxpu=1.5 vminpu=0.93 daily="COM_5_DO" 
New "Load.BT_8384_M2" bus1="UC3883.2.4" phases=1 conn=delta model=3 kv=0.22 kw = 0.0 pf=0.92 status=variable vmaxpu=1.5 vminpu=0.93 daily="COM_5_DO"
 
New "Load.BT_2055_M1" bus1="UC4114.1.4" phases=1 conn=delta model=2 kv=0.22 kw = 0.0 pf=0.92 status=variable vmaxpu=1.5 vminpu=0.93 daily="RES_7_DO" 
New "Load.BT_2055_M2" bus1="UC4114.1.4" phases=1 conn=delta model=3 kv=0.22 kw = 0.0 pf=0.92 status=variable vmaxpu=1.5 vminpu=0.93 daily="RES_7_DO"
 
New "Load.BT_1547_M1" bus1="UC14453.3.4" phases=1 conn=delta model=2 kv=0.22 kw = 0.0 pf=0.92 status=variable vmaxpu=1.5 vminpu=0.93 daily="RES_7_DO" 
New "Load.BT_1547_M2" bus1="UC14453.3.4" phases=1 conn=delta model=3 kv=0.22 kw = 0.0 pf=0.92 status=variable vmaxpu=1.5 vminpu=0.93 daily="RES_7_DO"
 
New "Load.BT_7858_M1" bus1="UC16118.2.4" phases=1 conn=delta model=2 kv=0.22 kw = 0.0 pf=0.92 status=variable vmaxpu=1.5 vminpu=0.93 daily="RES_7_DO" 
New "Load.BT_7858_M2" bus1="UC16118.2.4" phases=1 conn=delta model=3 kv=0.22 kw = 0.0 pf=0.92 status=variable vmaxpu=1.5 vminpu=0.93 daily="RES_7_DO"
 
New "Load.BT_2598_M1" bus1="UC15828.2.4" phases=1 conn=delta model=2 kv=0.22 kw = 312.203153527598 pf=0.92 status=variable vmaxpu=1.5 vminpu=0.93 daily="RES_2_DO" 
New "Load.BT_2598_M2" bus1="UC15828.2.4" phases=1 conn=delta model=3 kv=0.22 kw = 312.203153527598 pf=0.92 status=variable vmaxpu=1.5 vminpu=0.93 daily="RES_2_DO"
 
New "Load.BT_1076_M1" bus1="UC5746.1.4" phases=1 conn=delta model=2 kv=0.22 kw = 81.39977070251672 pf=0.92 status=variable vmaxpu=1.5 vminpu=0.93 daily="RES_5_DO" 
New "Load.BT_1076_M2" bus1="UC5746.1.4" phases=1 conn=delta model=3 kv=0.22 kw = 81.39977070251672 pf=0.92 status=variable vmaxpu=1.5 vminpu=0.93 daily="RES_5_DO"
 
New "Load.BT_1224_M1" bus1="UC797.2.4" phases=1 conn=delta model=2 kv=0.22 kw = 516.8412546686641 pf=0.92 status=variable vmaxpu=1.5 vminpu=0.93 daily="RES_3_DO" 
New "Load.BT_1224_M2" bus1="UC797.2.4" phases=1 conn=delta model=3 kv=0.22 kw = 516.8412546686641 pf=0.92 status=variable vmaxpu=1.5 vminpu=0.93 daily="RES_3_DO"
 
New "Load.BT_2144_M1" bus1="UC20086.1.4" phases=1 conn=delta model=2 kv=0.22 kw = 725.5006615307993 pf=0.92 status=variable vmaxpu=1.5 vminpu=0.93 daily="RES_2_DO" 
New "Load.BT_2144_M2" bus1="UC20086.1.4" phases=1 conn=delta model=3 kv=0.22 kw = 725.5006615307993 pf=0.92 status=variable vmaxpu=1.5 vminpu=0.93 daily="RES_2_DO"
 
New "Load.BT_618_M1" bus1="UC15794.3.1.4" phases=2 conn=delta model=2 kv=0.38 kw = 677.9268476599271 pf=0.92 status=variable vmaxpu=1.5 vminpu=0.93 daily="RES_2_DO" 
New "Load.BT_618_M2" bus1="UC15794.3.1.4" phases=2 conn=delta model=3 kv=0.38 kw = 677.9268476599271 pf=0.92 status=variable vmaxpu=1.5 vminpu=0.93 daily="RES_2_DO"
 
New "Load.BT_7606_M1" bus1="UC11739.3.4" phases=1 conn=delta model=2 kv=0.22 kw = 121.90789804410971 pf=0.92 status=variable vmaxpu=1.5 vminpu=0.93 daily="RES_2_DO" 
New "Load.BT_7606_M2" bus1="UC11739.3.4" phases=1 conn=delta model=3 kv=0.22 kw = 121.90789804410971 pf=0.92 status=variable vmaxpu=1.5 vminpu=0.93 daily="RES_2_DO"
 
New "Load.BT_6647_M1" bus1="UC9436.1.4" phases=1 conn=delta model=2 kv=0.22 kw = 255.70924955593745 pf=0.92 status=variable vmaxpu=1.5 vminpu=0.93 daily="RES_2_DO" 
New "Load.BT_6647_M2" bus1="UC9436.1.4" phases=1 conn=delta model=3 kv=0.22 kw = 255.70924955593745 pf=0.92 status=variable vmaxpu=1.5 vminpu=0.93 daily="RES_2_DO"
 
New "Load.BT_1485_M1" bus1="UC15792.1.2.3.4" phases=3 conn=delta model=2 kv=0.38 kw = 1010.9435447560317 pf=0.92 status=variable vmaxpu=1.5 vminpu=0.93 daily="RES_2_DO" 
New "Load.BT_1485_M2" bus1="UC15792.1.2.3.4" phases=3 conn=delta model=3 kv=0.38 kw = 1010.9435447560317 pf=0.92 status=variable vmaxpu=1.5 vminpu=0.93 daily="RES_2_DO"
 
New "Load.BT_6503_M1" bus1="UC15476.1.4" phases=1 conn=delta model=2 kv=0.22 kw = 410.3241446362717 pf=0.92 status=variable vmaxpu=1.5 vminpu=0.93 daily="RES_2_DO" 
New "Load.BT_6503_M2" bus1="UC15476.1.4" phases=1 conn=delta model=3 kv=0.22 kw = 410.3241446362717 pf=0.92 status=variable vmaxpu=1.5 vminpu=0.93 daily="RES_2_DO"
 
New "Load.BT_7350_M1" bus1="UC20128.1.4" phases=1 conn=delta model=2 kv=0.22 kw = 0.0 pf=0.92 status=variable vmaxpu=1.5 vminpu=0.93 daily="RES_3_DO" 
New "Load.BT_7350_M2" bus1="UC20128.1.4" phases=1 conn=delta model=3 kv=0.22 kw = 0.0 pf=0.92 status=variable vmaxpu=1.5 vminpu=0.93 daily="RES_3_DO"
 
New "Load.BT_7853_M1" bus1="UC16098.2.3.4" phases=2 conn=delta model=2 kv=0.38 kw = 0.0 pf=0.92 status=variable vmaxpu=1.5 vminpu=0.93 daily="RES_7_DO" 
New "Load.BT_7853_M2" bus1="UC16098.2.3.4" phases=2 conn=delta model=3 kv=0.38 kw = 0.0 pf=0.92 status=variable vmaxpu=1.5 vminpu=0.93 daily="RES_7_DO"
 
New "Load.BT_2823_M1" bus1="UC4516.3.1.4" phases=2 conn=delta model=2 kv=0.38 kw = 0.0 pf=0.92 status=variable vmaxpu=1.5 vminpu=0.93 daily="RES_3_DO" 
New "Load.BT_2823_M2" bus1="UC4516.3.1.4" phases=2 conn=delta model=3 kv=0.38 kw = 0.0 pf=0.92 status=variable vmaxpu=1.5 vminpu=0.93 daily="RES_3_DO"
 
New "Load.BT_1088_M1" bus1="UC5634.3.4" phases=1 conn=delta model=2 kv=0.22 kw = 0.0 pf=0.92 status=variable vmaxpu=1.5 vminpu=0.93 daily="RES_3_DO" 
New "Load.BT_1088_M2" bus1="UC5634.3.4" phases=1 conn=delta model=3 kv=0.22 kw = 0.0 pf=0.92 status=variable vmaxpu=1.5 vminpu=0.93 daily="RES_3_DO"
 
New "Load.BT_6907_M1" bus1="UC10830.1.4" phases=1 conn=delta model=2 kv=0.22 kw = 0.0 pf=0.92 status=variable vmaxpu=1.5 vminpu=0.93 daily="RES_7_DO" 
New "Load.BT_6907_M2" bus1="UC10830.1.4" phases=1 conn=delta model=3 kv=0.22 kw = 0.0 pf=0.92 status=variable vmaxpu=1.5 vminpu=0.93 daily="RES_7_DO"
 
New "Load.BT_2519_M1" bus1="UC15768.1.4" phases=1 conn=delta model=2 kv=0.22 kw = 38.653723770083566 pf=0.92 status=variable vmaxpu=1.5 vminpu=0.93 daily="RES_2_DO" 
New "Load.BT_2519_M2" bus1="UC15768.1.4" phases=1 conn=delta model=3 kv=0.22 kw = 38.653723770083566 pf=0.92 status=variable vmaxpu=1.5 vminpu=0.93 daily="RES_2_DO"
 
New "Load.BT_7950_M1" bus1="UC15770.1.2.4" phases=2 conn=delta model=2 kv=0.38 kw = 704.6871179622927 pf=0.92 status=variable vmaxpu=1.5 vminpu=0.93 daily="RES_2_DO" 
New "Load.BT_7950_M2" bus1="UC15770.1.2.4" phases=2 conn=delta model=3 kv=0.38 kw = 704.6871179622927 pf=0.92 status=variable vmaxpu=1.5 vminpu=0.93 daily="RES_2_DO"
 
New "Load.BT_7736_M1" bus1="UC20080.1.2.4" phases=2 conn=delta model=2 kv=0.38 kw = 273.5494297575145 pf=0.92 status=variable vmaxpu=1.5 vminpu=0.93 daily="RES_2_DO" 
New "Load.BT_7736_M2" bus1="UC20080.1.2.4" phases=2 conn=delta model=3 kv=0.38 kw = 273.5494297575145 pf=0.92 status=variable vmaxpu=1.5 vminpu=0.93 daily="RES_2_DO"
 
New "Load.BT_7736_M1" bus1="UC20078.2.3.4" phases=2 conn=delta model=2 kv=0.38 kw = 5.94672673385901 pf=0.92 status=variable vmaxpu=1.5 vminpu=0.93 daily="RES_2_DO" 
New "Load.BT_7736_M2" bus1="UC20078.2.3.4" phases=2 conn=delta model=3 kv=0.38 kw = 5.94672673385901 pf=0.92 status=variable vmaxpu=1.5 vminpu=0.93 daily="RES_2_DO"
 
New "Load.BT_7736_M1" bus1="UC20079.2.3.4" phases=2 conn=delta model=2 kv=0.38 kw = 104.06771784253267 pf=0.92 status=variable vmaxpu=1.5 vminpu=0.93 daily="RES_2_DO" 
New "Load.BT_7736_M2" bus1="UC20079.2.3.4" phases=2 conn=delta model=3 kv=0.38 kw = 104.06771784253267 pf=0.92 status=variable vmaxpu=1.5 vminpu=0.93 daily="RES_2_DO"
 
New "Load.BT_2553_M1" bus1="UC20081.3.4" phases=1 conn=delta model=2 kv=0.22 kw = 3.9843590117018426 pf=0.92 status=variable vmaxpu=1.5 vminpu=0.93 daily="RES_6_DO" 
New "Load.BT_2553_M2" bus1="UC20081.3.4" phases=1 conn=delta model=3 kv=0.22 kw = 3.9843590117018426 pf=0.92 status=variable vmaxpu=1.5 vminpu=0.93 daily="RES_6_DO"
 
New "Load.BT_1328_M1" bus1="UC960.3.4" phases=1 conn=delta model=2 kv=0.22 kw = 240.8424327212899 pf=0.92 status=variable vmaxpu=1.5 vminpu=0.93 daily="RES_2_DO" 
New "Load.BT_1328_M2" bus1="UC960.3.4" phases=1 conn=delta model=3 kv=0.22 kw = 240.8424327212899 pf=0.92 status=variable vmaxpu=1.5 vminpu=0.93 daily="RES_2_DO"
 
New "Load.BT_1280_M1" bus1="UC7780.1.4" phases=1 conn=delta model=2 kv=0.22 kw = 651.1665773575617 pf=0.92 status=variable vmaxpu=1.5 vminpu=0.93 daily="RES_2_DO" 
New "Load.BT_1280_M2" bus1="UC7780.1.4" phases=1 conn=delta model=3 kv=0.22 kw = 651.1665773575617 pf=0.92 status=variable vmaxpu=1.5 vminpu=0.93 daily="RES_2_DO"
 
New "Load.BT_7756_M1" bus1="UC15778.1.2.3.4" phases=3 conn=delta model=2 kv=0.38 kw = 11.89345346771802 pf=0.92 status=variable vmaxpu=1.5 vminpu=0.93 daily="RES_2_DO" 
New "Load.BT_7756_M2" bus1="UC15778.1.2.3.4" phases=3 conn=delta model=3 kv=0.38 kw = 11.89345346771802 pf=0.92 status=variable vmaxpu=1.5 vminpu=0.93 daily="RES_2_DO"
 
New "Load.BT_7345_M1" bus1="UC4494.3.4" phases=1 conn=delta model=2 kv=0.22 kw = 419.2442347370602 pf=0.92 status=variable vmaxpu=1.5 vminpu=0.93 daily="RES_2_DO" 
New "Load.BT_7345_M2" bus1="UC4494.3.4" phases=1 conn=delta model=3 kv=0.22 kw = 419.2442347370602 pf=0.92 status=variable vmaxpu=1.5 vminpu=0.93 daily="RES_2_DO"
 
New "Load.BT_6677_M1" bus1="UC15444.3.4" phases=1 conn=delta model=2 kv=0.22 kw = 240.8424327212899 pf=0.92 status=variable vmaxpu=1.5 vminpu=0.93 daily="RES_2_DO" 
New "Load.BT_6677_M2" bus1="UC15444.3.4" phases=1 conn=delta model=3 kv=0.22 kw = 240.8424327212899 pf=0.92 status=variable vmaxpu=1.5 vminpu=0.93 daily="RES_2_DO"
 
New "Load.BT_2035_M1" bus1="UC20026.1.4" phases=1 conn=delta model=2 kv=0.22 kw = 636.8307954243598 pf=0.92 status=variable vmaxpu=1.5 vminpu=0.93 daily="RES_11_DO" 
New "Load.BT_2035_M2" bus1="UC20026.1.4" phases=1 conn=delta model=3 kv=0.22 kw = 636.8307954243598 pf=0.92 status=variable vmaxpu=1.5 vminpu=0.93 daily="RES_11_DO"
 
New "Load.BT_1901_M1" bus1="UC20027.2.3.4" phases=2 conn=delta model=2 kv=0.38 kw = 550.0722228819585 pf=0.92 status=variable vmaxpu=1.5 vminpu=0.93 daily="RES_2_DO" 
New "Load.BT_1901_M2" bus1="UC20027.2.3.4" phases=2 conn=delta model=3 kv=0.38 kw = 550.0722228819585 pf=0.92 status=variable vmaxpu=1.5 vminpu=0.93 daily="RES_2_DO"
 
New "Load.BT_7814_M1" bus1="UC16067.3.4" phases=1 conn=delta model=2 kv=0.22 kw = 0.0 pf=0.92 status=variable vmaxpu=1.5 vminpu=0.93 daily="RES_7_DO" 
New "Load.BT_7814_M2" bus1="UC16067.3.4" phases=1 conn=delta model=3 kv=0.22 kw = 0.0 pf=0.92 status=variable vmaxpu=1.5 vminpu=0.93 daily="RES_7_DO"
 
New "Load.BT_1799_M1" bus1="UC6060.1.4" phases=1 conn=delta model=2 kv=0.22 kw = 0.0 pf=0.92 status=variable vmaxpu=1.5 vminpu=0.93 daily="RES_3_DO" 
New "Load.BT_1799_M2" bus1="UC6060.1.4" phases=1 conn=delta model=3 kv=0.22 kw = 0.0 pf=0.92 status=variable vmaxpu=1.5 vminpu=0.93 daily="RES_3_DO"
 
New "Load.BT_2049_M1" bus1="UC4838.1.2.4" phases=2 conn=delta model=2 kv=0.38 kw = 0.0 pf=0.92 status=variable vmaxpu=1.5 vminpu=0.93 daily="RES_3_DO" 
New "Load.BT_2049_M2" bus1="UC4838.1.2.4" phases=2 conn=delta model=3 kv=0.38 kw = 0.0 pf=0.92 status=variable vmaxpu=1.5 vminpu=0.93 daily="RES_3_DO"
 
New "Load.BT_6674_M1" bus1="UC14778.2.4" phases=1 conn=delta model=2 kv=0.22 kw = 0.0 pf=0.92 status=variable vmaxpu=1.5 vminpu=0.93 daily="RES_3_DO" 
New "Load.BT_6674_M2" bus1="UC14778.2.4" phases=1 conn=delta model=3 kv=0.22 kw = 0.0 pf=0.92 status=variable vmaxpu=1.5 vminpu=0.93 daily="RES_3_DO"
 
New "Load.BT_3082_M1" bus1="UC3698.2.4" phases=1 conn=delta model=2 kv=0.22 kw = 0.0 pf=0.92 status=variable vmaxpu=1.5 vminpu=0.93 daily="RES_3_DO" 
New "Load.BT_3082_M2" bus1="UC3698.2.4" phases=1 conn=delta model=3 kv=0.22 kw = 0.0 pf=0.92 status=variable vmaxpu=1.5 vminpu=0.93 daily="RES_3_DO"
 
New "Load.BT_2055_M1" bus1="UC4114.3.4" phases=1 conn=delta model=2 kv=0.22 kw = 0.0 pf=0.92 status=variable vmaxpu=1.5 vminpu=0.93 daily="RES_3_DO" 
New "Load.BT_2055_M2" bus1="UC4114.3.4" phases=1 conn=delta model=3 kv=0.22 kw = 0.0 pf=0.92 status=variable vmaxpu=1.5 vminpu=0.93 daily="RES_3_DO"
 
New "Load.BT_1061_M1" bus1="UC16077.3.4" phases=1 conn=delta model=2 kv=0.22 kw = 0.0 pf=0.92 status=variable vmaxpu=1.5 vminpu=0.93 daily="RES_3_DO" 
New "Load.BT_1061_M2" bus1="UC16077.3.4" phases=1 conn=delta model=3 kv=0.22 kw = 0.0 pf=0.92 status=variable vmaxpu=1.5 vminpu=0.93 daily="RES_3_DO"
 
New "Load.BT_7970_M1" bus1="UC15759.2.3.4" phases=2 conn=delta model=2 kv=0.38 kw = 17.84018020157703 pf=0.92 status=variable vmaxpu=1.5 vminpu=0.93 daily="RES_2_DO" 
New "Load.BT_7970_M2" bus1="UC15759.2.3.4" phases=2 conn=delta model=3 kv=0.38 kw = 17.84018020157703 pf=0.92 status=variable vmaxpu=1.5 vminpu=0.93 daily="RES_2_DO"
 
New "Load.BT_7948_M1" bus1="UC15766.1.2.3.4" phases=3 conn=delta model=2 kv=0.38 kw = 502.4984090110863 pf=0.92 status=variable vmaxpu=1.5 vminpu=0.93 daily="RES_2_DO" 
New "Load.BT_7948_M2" bus1="UC15766.1.2.3.4" phases=3 conn=delta model=3 kv=0.38 kw = 502.4984090110863 pf=0.92 status=variable vmaxpu=1.5 vminpu=0.93 daily="RES_2_DO"
 
New "Load.BT_8518_M1" bus1="UC20077.3.4" phases=1 conn=delta model=2 kv=0.22 kw = 80.28081090709664 pf=0.92 status=variable vmaxpu=1.5 vminpu=0.93 daily="RES_2_DO" 
New "Load.BT_8518_M2" bus1="UC20077.3.4" phases=1 conn=delta model=3 kv=0.22 kw = 80.28081090709664 pf=0.92 status=variable vmaxpu=1.5 vminpu=0.93 daily="RES_2_DO"
 
New "Load.BT_7756_M1" bus1="UC15767.3.4" phases=1 conn=delta model=2 kv=0.22 kw = 695.7670278615042 pf=0.92 status=variable vmaxpu=1.5 vminpu=0.93 daily="RES_2_DO" 
New "Load.BT_7756_M2" bus1="UC15767.3.4" phases=1 conn=delta model=3 kv=0.22 kw = 695.7670278615042 pf=0.92 status=variable vmaxpu=1.5 vminpu=0.93 daily="RES_2_DO"
 
New "Load.BT_7790_M1" bus1="UC15434.3.4" phases=1 conn=delta model=2 kv=0.22 kw = 481.6848654425798 pf=0.92 status=variable vmaxpu=1.5 vminpu=0.93 daily="RES_2_DO" 
New "Load.BT_7790_M2" bus1="UC15434.3.4" phases=1 conn=delta model=3 kv=0.22 kw = 481.6848654425798 pf=0.92 status=variable vmaxpu=1.5 vminpu=0.93 daily="RES_2_DO"
 
New "Load.BT_2544_M1" bus1="UC4853.1.2.4" phases=2 conn=delta model=2 kv=0.38 kw = 231.9223426205014 pf=0.92 status=variable vmaxpu=1.5 vminpu=0.93 daily="RES_2_DO" 
New "Load.BT_2544_M2" bus1="UC4853.1.2.4" phases=2 conn=delta model=3 kv=0.38 kw = 231.9223426205014 pf=0.92 status=variable vmaxpu=1.5 vminpu=0.93 daily="RES_2_DO"
 
New "Load.BT_7743_M1" bus1="UC10804.1.4" phases=1 conn=delta model=2 kv=0.22 kw = 470.714855102317 pf=0.92 status=variable vmaxpu=1.5 vminpu=0.93 daily="RES_1_DO" 
New "Load.BT_7743_M2" bus1="UC10804.1.4" phases=1 conn=delta model=3 kv=0.22 kw = 470.714855102317 pf=0.92 status=variable vmaxpu=1.5 vminpu=0.93 daily="RES_1_DO"
 
New "Load.BT_7817_M1" bus1="UC15439.2.4" phases=1 conn=delta model=2 kv=0.22 kw = 794.7419980708647 pf=0.92 status=variable vmaxpu=1.5 vminpu=0.93 daily="RES_8_DO" 
New "Load.BT_7817_M2" bus1="UC15439.2.4" phases=1 conn=delta model=3 kv=0.22 kw = 794.7419980708647 pf=0.92 status=variable vmaxpu=1.5 vminpu=0.93 daily="RES_8_DO"
 
New "Load.BT_2147_M1" bus1="UC20024.3.1.4" phases=2 conn=delta model=2 kv=0.38 kw = 160.56162181419327 pf=0.92 status=variable vmaxpu=1.5 vminpu=0.93 daily="RES_2_DO" 
New "Load.BT_2147_M2" bus1="UC20024.3.1.4" phases=2 conn=delta model=3 kv=0.38 kw = 160.56162181419327 pf=0.92 status=variable vmaxpu=1.5 vminpu=0.93 daily="RES_2_DO"
 
New "Load.BT_7463_M1" bus1="UC4971.2.3.4" phases=2 conn=delta model=2 kv=0.38 kw = 532.5802360586216 pf=0.92 status=variable vmaxpu=1.5 vminpu=0.93 daily="RES_1_DO" 
New "Load.BT_7463_M2" bus1="UC4971.2.3.4" phases=2 conn=delta model=3 kv=0.38 kw = 532.5802360586216 pf=0.92 status=variable vmaxpu=1.5 vminpu=0.93 daily="RES_1_DO"
 
New "Load.BT_1561_M1" bus1="UC14577.2.4" phases=1 conn=delta model=2 kv=0.22 kw = 463.8446852410028 pf=0.92 status=variable vmaxpu=1.5 vminpu=0.93 daily="RES_2_DO" 
New "Load.BT_1561_M2" bus1="UC14577.2.4" phases=1 conn=delta model=3 kv=0.22 kw = 463.8446852410028 pf=0.92 status=variable vmaxpu=1.5 vminpu=0.93 daily="RES_2_DO"
 
New "Load.BT_2266_M1" bus1="UC4027.3.4" phases=1 conn=delta model=2 kv=0.22 kw = 122.58057119188581 pf=0.92 status=variable vmaxpu=1.5 vminpu=0.93 daily="COM_1_DO" 
New "Load.BT_2266_M2" bus1="UC4027.3.4" phases=1 conn=delta model=3 kv=0.22 kw = 122.58057119188581 pf=0.92 status=variable vmaxpu=1.5 vminpu=0.93 daily="COM_1_DO"
 
New "Load.BT_8289_M1" bus1="UC20019.1.4" phases=1 conn=delta model=2 kv=0.22 kw = 365.7236941323291 pf=0.92 status=variable vmaxpu=1.5 vminpu=0.93 daily="RES_2_DO" 
New "Load.BT_8289_M2" bus1="UC20019.1.4" phases=1 conn=delta model=3 kv=0.22 kw = 365.7236941323291 pf=0.92 status=variable vmaxpu=1.5 vminpu=0.93 daily="RES_2_DO"
 
New "Load.BT_3070_M1" bus1="UC20020.1.2.4" phases=2 conn=delta model=2 kv=0.38 kw = 428.16432483784877 pf=0.92 status=variable vmaxpu=1.5 vminpu=0.93 daily="RES_2_DO" 
New "Load.BT_3070_M2" bus1="UC20020.1.2.4" phases=2 conn=delta model=3 kv=0.38 kw = 428.16432483784877 pf=0.92 status=variable vmaxpu=1.5 vminpu=0.93 daily="RES_2_DO"
 
New "Load.BT_8375_M1" bus1="UC4987.3.1.4" phases=2 conn=delta model=2 kv=0.38 kw = 255.70924955593745 pf=0.92 status=variable vmaxpu=1.5 vminpu=0.93 daily="RES_2_DO" 
New "Load.BT_8375_M2" bus1="UC4987.3.1.4" phases=2 conn=delta model=3 kv=0.38 kw = 255.70924955593745 pf=0.92 status=variable vmaxpu=1.5 vminpu=0.93 daily="RES_2_DO"
 
New "Load.BT_7746_M1" bus1="UC14588.1.4" phases=1 conn=delta model=2 kv=0.22 kw = 130.8279881448982 pf=0.92 status=variable vmaxpu=1.5 vminpu=0.93 daily="RES_2_DO" 
New "Load.BT_7746_M2" bus1="UC14588.1.4" phases=1 conn=delta model=3 kv=0.22 kw = 130.8279881448982 pf=0.92 status=variable vmaxpu=1.5 vminpu=0.93 daily="RES_2_DO"
 
New "Load.BT_7000_M1" bus1="UC15426.1.4" phases=1 conn=delta model=2 kv=0.22 kw = 475.7381387087208 pf=0.92 status=variable vmaxpu=1.5 vminpu=0.93 daily="RES_2_DO" 
New "Load.BT_7000_M2" bus1="UC15426.1.4" phases=1 conn=delta model=3 kv=0.22 kw = 475.7381387087208 pf=0.92 status=variable vmaxpu=1.5 vminpu=0.93 daily="RES_2_DO"
 
New "Load.BT_874_M1" bus1="UC12653.1.4" phases=1 conn=delta model=2 kv=0.22 kw = 381.07794680856443 pf=0.92 status=variable vmaxpu=1.5 vminpu=0.93 daily="COM_5_DO" 
New "Load.BT_874_M2" bus1="UC12653.1.4" phases=1 conn=delta model=3 kv=0.22 kw = 381.07794680856443 pf=0.92 status=variable vmaxpu=1.5 vminpu=0.93 daily="COM_5_DO"
 
New "Load.BT_7960_M1" bus1="UC15423.1.2.3.4" phases=3 conn=delta model=2 kv=0.38 kw = 234.56775968817655 pf=0.92 status=variable vmaxpu=1.5 vminpu=0.93 daily="COM_1_DO" 
New "Load.BT_7960_M2" bus1="UC15423.1.2.3.4" phases=3 conn=delta model=3 kv=0.38 kw = 234.56775968817655 pf=0.92 status=variable vmaxpu=1.5 vminpu=0.93 daily="COM_1_DO"
 
New "Load.BT_61_M1" bus1="UC16056.1.4" phases=1 conn=delta model=2 kv=0.22 kw = 0.0 pf=0.92 status=variable vmaxpu=1.5 vminpu=0.93 daily="RES_7_DO" 
New "Load.BT_61_M2" bus1="UC16056.1.4" phases=1 conn=delta model=3 kv=0.22 kw = 0.0 pf=0.92 status=variable vmaxpu=1.5 vminpu=0.93 daily="RES_7_DO"
 
New "Load.BT_8301_M1" bus1="UC20120.1.2.4" phases=2 conn=delta model=2 kv=0.38 kw = 0.0 pf=0.92 status=variable vmaxpu=1.5 vminpu=0.93 daily="RES_3_DO" 
New "Load.BT_8301_M2" bus1="UC20120.1.2.4" phases=2 conn=delta model=3 kv=0.38 kw = 0.0 pf=0.92 status=variable vmaxpu=1.5 vminpu=0.93 daily="RES_3_DO"
 
New "Load.BT_7633_M1" bus1="UC20123.2.4" phases=1 conn=delta model=2 kv=0.22 kw = 0.0 pf=0.92 status=variable vmaxpu=1.5 vminpu=0.93 daily="RES_3_DO" 
New "Load.BT_7633_M2" bus1="UC20123.2.4" phases=1 conn=delta model=3 kv=0.22 kw = 0.0 pf=0.92 status=variable vmaxpu=1.5 vminpu=0.93 daily="RES_3_DO"
 
New "Load.BT_2683_M1" bus1="UC20122.3.4" phases=1 conn=delta model=2 kv=0.22 kw = 0.0 pf=0.92 status=variable vmaxpu=1.5 vminpu=0.93 daily="RES_7_DO" 
New "Load.BT_2683_M2" bus1="UC20122.3.4" phases=1 conn=delta model=3 kv=0.22 kw = 0.0 pf=0.92 status=variable vmaxpu=1.5 vminpu=0.93 daily="RES_7_DO"
 
New "Load.BT_8675_M1" bus1="UC16051.1.4" phases=1 conn=delta model=2 kv=0.22 kw = 0.0 pf=0.92 status=variable vmaxpu=1.5 vminpu=0.93 daily="COM_5_DO" 
New "Load.BT_8675_M2" bus1="UC16051.1.4" phases=1 conn=delta model=3 kv=0.22 kw = 0.0 pf=0.92 status=variable vmaxpu=1.5 vminpu=0.93 daily="COM_5_DO"
 
New "Load.BT_6508_M1" bus1="UC16063.2.4" phases=1 conn=delta model=2 kv=0.22 kw = 0.0 pf=0.92 status=variable vmaxpu=1.5 vminpu=0.93 daily="RES_3_DO" 
New "Load.BT_6508_M2" bus1="UC16063.2.4" phases=1 conn=delta model=3 kv=0.22 kw = 0.0 pf=0.92 status=variable vmaxpu=1.5 vminpu=0.93 daily="RES_3_DO"
 
New "Load.BT_7819_M1" bus1="UC16066.2.4" phases=1 conn=delta model=2 kv=0.22 kw = 0.0 pf=0.92 status=variable vmaxpu=1.5 vminpu=0.93 daily="RES_7_DO" 
New "Load.BT_7819_M2" bus1="UC16066.2.4" phases=1 conn=delta model=3 kv=0.22 kw = 0.0 pf=0.92 status=variable vmaxpu=1.5 vminpu=0.93 daily="RES_7_DO"
 
New "Load.BT_835_M1" bus1="UC16065.3.4" phases=1 conn=delta model=2 kv=0.22 kw = 0.0 pf=0.92 status=variable vmaxpu=1.5 vminpu=0.93 daily="RES_3_DO" 
New "Load.BT_835_M2" bus1="UC16065.3.4" phases=1 conn=delta model=3 kv=0.22 kw = 0.0 pf=0.92 status=variable vmaxpu=1.5 vminpu=0.93 daily="RES_3_DO"
 
New "Load.BT_8015_M1" bus1="UC20075.1.2.3.4" phases=3 conn=delta model=2 kv=0.38 kw = 202.18870895120634 pf=0.92 status=variable vmaxpu=1.5 vminpu=0.93 daily="RES_2_DO" 
New "Load.BT_8015_M2" bus1="UC20075.1.2.3.4" phases=3 conn=delta model=3 kv=0.38 kw = 202.18870895120634 pf=0.92 status=variable vmaxpu=1.5 vminpu=0.93 daily="RES_2_DO"
 
New "Load.BT_71_M1" bus1="UC2604.2.4" phases=1 conn=delta model=2 kv=0.22 kw = 0.0 pf=0.92 status=variable vmaxpu=1.5 vminpu=0.93 daily="RES_2_DO" 
New "Load.BT_71_M2" bus1="UC2604.2.4" phases=1 conn=delta model=3 kv=0.22 kw = 0.0 pf=0.92 status=variable vmaxpu=1.5 vminpu=0.93 daily="RES_2_DO"
 
New "Load.BT_8314_M1" bus1="UC15743.1.2.3.4" phases=3 conn=delta model=2 kv=0.38 kw = 22.700105776275148 pf=0.92 status=variable vmaxpu=1.5 vminpu=0.93 daily="COM_1_DO" 
New "Load.BT_8314_M2" bus1="UC15743.1.2.3.4" phases=3 conn=delta model=3 kv=0.38 kw = 22.700105776275148 pf=0.92 status=variable vmaxpu=1.5 vminpu=0.93 daily="COM_1_DO"
 
New "Load.BT_814_M1" bus1="UC20076.1.4" phases=1 conn=delta model=2 kv=0.22 kw = 142.72144161261625 pf=0.92 status=variable vmaxpu=1.5 vminpu=0.93 daily="RES_2_DO" 
New "Load.BT_814_M2" bus1="UC20076.1.4" phases=1 conn=delta model=3 kv=0.22 kw = 142.72144161261625 pf=0.92 status=variable vmaxpu=1.5 vminpu=0.93 daily="RES_2_DO"
 
New "Load.BT_8070_M1" bus1="UC20074.2.3.4" phases=2 conn=delta model=2 kv=0.38 kw = 666.0333941922091 pf=0.92 status=variable vmaxpu=1.5 vminpu=0.93 daily="RES_2_DO" 
New "Load.BT_8070_M2" bus1="UC20074.2.3.4" phases=2 conn=delta model=3 kv=0.38 kw = 666.0333941922091 pf=0.92 status=variable vmaxpu=1.5 vminpu=0.93 daily="RES_2_DO"
 
New "Load.BT_2848_M1" bus1="UC6699.2.4" phases=1 conn=delta model=2 kv=0.22 kw = 886.0622833449926 pf=0.92 status=variable vmaxpu=1.5 vminpu=0.93 daily="RES_2_DO" 
New "Load.BT_2848_M2" bus1="UC6699.2.4" phases=1 conn=delta model=3 kv=0.22 kw = 886.0622833449926 pf=0.92 status=variable vmaxpu=1.5 vminpu=0.93 daily="RES_2_DO"
 
New "Load.BT_1090_M1" bus1="UC15410.1.2.3.4" phases=3 conn=delta model=2 kv=0.38 kw = 237.59444045834658 pf=0.92 status=variable vmaxpu=1.5 vminpu=0.93 daily="COM_1_DO" 
New "Load.BT_1090_M2" bus1="UC15410.1.2.3.4" phases=3 conn=delta model=3 kv=0.38 kw = 237.59444045834658 pf=0.92 status=variable vmaxpu=1.5 vminpu=0.93 daily="COM_1_DO"
 
New "Load.BT_1090_M1" bus1="UC15410.3.4" phases=1 conn=delta model=2 kv=0.22 kw = 3517.9574701335905 pf=0.92 status=variable vmaxpu=1.5 vminpu=0.93 daily="RES_8_DO" 
New "Load.BT_1090_M2" bus1="UC15410.3.4" phases=1 conn=delta model=3 kv=0.22 kw = 3517.9574701335905 pf=0.92 status=variable vmaxpu=1.5 vminpu=0.93 daily="RES_8_DO"
 
New "Load.BT_7839_M1" bus1="UC15414.1.2.3.4" phases=3 conn=delta model=2 kv=0.38 kw = 12855.82657129716 pf=0.92 status=variable vmaxpu=1.5 vminpu=0.93 daily="COM_1_DO" 
New "Load.BT_7839_M2" bus1="UC15414.1.2.3.4" phases=3 conn=delta model=3 kv=0.38 kw = 12855.82657129716 pf=0.92 status=variable vmaxpu=1.5 vminpu=0.93 daily="COM_1_DO"
 
New "Load.BT_1339_M1" bus1="UC15420.2.3.4" phases=2 conn=delta model=2 kv=0.38 kw = 297.33633669295045 pf=0.92 status=variable vmaxpu=1.5 vminpu=0.93 daily="RES_2_DO" 
New "Load.BT_1339_M2" bus1="UC15420.2.3.4" phases=2 conn=delta model=3 kv=0.38 kw = 297.33633669295045 pf=0.92 status=variable vmaxpu=1.5 vminpu=0.93 daily="RES_2_DO"
 
New "Load.BT_7850_M1" bus1="UC13997.1.4" phases=1 conn=delta model=2 kv=0.22 kw = 305.4435732232068 pf=0.92 status=variable vmaxpu=1.5 vminpu=0.93 daily="RES_13_DO" 
New "Load.BT_7850_M2" bus1="UC13997.1.4" phases=1 conn=delta model=3 kv=0.22 kw = 305.4435732232068 pf=0.92 status=variable vmaxpu=1.5 vminpu=0.93 daily="RES_13_DO"
 
New "Load.BT_2647_M1" bus1="UC4659.1.2.3.4" phases=3 conn=delta model=2 kv=0.38 kw = 0.0 pf=0.92 status=variable vmaxpu=1.5 vminpu=0.93 daily="RES_3_DO" 
New "Load.BT_2647_M2" bus1="UC4659.1.2.3.4" phases=3 conn=delta model=3 kv=0.38 kw = 0.0 pf=0.92 status=variable vmaxpu=1.5 vminpu=0.93 daily="RES_3_DO"
 
New "Load.BT_3000_M1" bus1="UC3833.2.4" phases=1 conn=delta model=2 kv=0.22 kw = 0.0 pf=0.92 status=variable vmaxpu=1.5 vminpu=0.93 daily="COM_5_DO" 
New "Load.BT_3000_M2" bus1="UC3833.2.4" phases=1 conn=delta model=3 kv=0.22 kw = 0.0 pf=0.92 status=variable vmaxpu=1.5 vminpu=0.93 daily="COM_5_DO"
 
New "Load.BT_6968_M1" bus1="UC16049.1.4" phases=1 conn=delta model=2 kv=0.22 kw = 0.0 pf=0.92 status=variable vmaxpu=1.5 vminpu=0.93 daily="RES_7_DO" 
New "Load.BT_6968_M2" bus1="UC16049.1.4" phases=1 conn=delta model=3 kv=0.22 kw = 0.0 pf=0.92 status=variable vmaxpu=1.5 vminpu=0.93 daily="RES_7_DO"
 
New "Load.BT_8565_M1" bus1="UC20121.1.2.3.4" phases=3 conn=delta model=2 kv=0.38 kw = 0.0 pf=0.92 status=variable vmaxpu=1.5 vminpu=0.93 daily="RES_3_DO" 
New "Load.BT_8565_M2" bus1="UC20121.1.2.3.4" phases=3 conn=delta model=3 kv=0.38 kw = 0.0 pf=0.92 status=variable vmaxpu=1.5 vminpu=0.93 daily="RES_3_DO"
 
New "Load.BT_2851_M1" bus1="UC1952.2.4" phases=1 conn=delta model=2 kv=0.22 kw = 0.0 pf=0.92 status=variable vmaxpu=1.5 vminpu=0.93 daily="RES_3_DO" 
New "Load.BT_2851_M2" bus1="UC1952.2.4" phases=1 conn=delta model=3 kv=0.22 kw = 0.0 pf=0.92 status=variable vmaxpu=1.5 vminpu=0.93 daily="RES_3_DO"
 
New "Load.BT_1108_M1" bus1="UC16052.3.4" phases=1 conn=delta model=2 kv=0.22 kw = 0.0 pf=0.92 status=variable vmaxpu=1.5 vminpu=0.93 daily="RES_7_DO" 
New "Load.BT_1108_M2" bus1="UC16052.3.4" phases=1 conn=delta model=3 kv=0.22 kw = 0.0 pf=0.92 status=variable vmaxpu=1.5 vminpu=0.93 daily="RES_7_DO"
 
New "Load.BT_61_M1" bus1="UC16056.2.4" phases=1 conn=delta model=2 kv=0.22 kw = 0.0 pf=0.92 status=variable vmaxpu=1.5 vminpu=0.93 daily="RES_7_DO" 
New "Load.BT_61_M2" bus1="UC16056.2.4" phases=1 conn=delta model=3 kv=0.22 kw = 0.0 pf=0.92 status=variable vmaxpu=1.5 vminpu=0.93 daily="RES_7_DO"
 
New "Load.BT_7277_M1" bus1="UC16022.1.2.3.4" phases=3 conn=delta model=2 kv=0.38 kw = 0.0 pf=0.92 status=variable vmaxpu=1.5 vminpu=0.93 daily="RES_7_DO" 
New "Load.BT_7277_M2" bus1="UC16022.1.2.3.4" phases=3 conn=delta model=3 kv=0.38 kw = 0.0 pf=0.92 status=variable vmaxpu=1.5 vminpu=0.93 daily="RES_7_DO"
 
New "Load.BT_7621_M1" bus1="UC20113.1.4" phases=1 conn=delta model=2 kv=0.22 kw = 0.0 pf=0.92 status=variable vmaxpu=1.5 vminpu=0.93 daily="RES_3_DO" 
New "Load.BT_7621_M2" bus1="UC20113.1.4" phases=1 conn=delta model=3 kv=0.22 kw = 0.0 pf=0.92 status=variable vmaxpu=1.5 vminpu=0.93 daily="RES_3_DO"
 
New "Load.BT_7621_M1" bus1="UC20113.2.4" phases=1 conn=delta model=2 kv=0.22 kw = 0.0 pf=0.92 status=variable vmaxpu=1.5 vminpu=0.93 daily="RES_3_DO" 
New "Load.BT_7621_M2" bus1="UC20113.2.4" phases=1 conn=delta model=3 kv=0.22 kw = 0.0 pf=0.92 status=variable vmaxpu=1.5 vminpu=0.93 daily="RES_3_DO"
 
New "Load.BT_8077_M1" bus1="UC4766.2.3.4" phases=2 conn=delta model=2 kv=0.38 kw = 0.0 pf=0.92 status=variable vmaxpu=1.5 vminpu=0.93 daily="RES_3_DO" 
New "Load.BT_8077_M2" bus1="UC4766.2.3.4" phases=2 conn=delta model=3 kv=0.38 kw = 0.0 pf=0.92 status=variable vmaxpu=1.5 vminpu=0.93 daily="RES_3_DO"
 
New "Load.BT_8518_M1" bus1="UC20077.3.4" phases=1 conn=delta model=2 kv=0.22 kw = 0.0 pf=0.92 status=variable vmaxpu=1.5 vminpu=0.93 daily="RES_3_DO" 
New "Load.BT_8518_M2" bus1="UC20077.3.4" phases=1 conn=delta model=3 kv=0.22 kw = 0.0 pf=0.92 status=variable vmaxpu=1.5 vminpu=0.93 daily="RES_3_DO"
 
New "Load.BT_8518_M1" bus1="UC20077.2.4" phases=1 conn=delta model=2 kv=0.22 kw = 0.0 pf=0.92 status=variable vmaxpu=1.5 vminpu=0.93 daily="RES_7_DO" 
New "Load.BT_8518_M2" bus1="UC20077.2.4" phases=1 conn=delta model=3 kv=0.22 kw = 0.0 pf=0.92 status=variable vmaxpu=1.5 vminpu=0.93 daily="RES_7_DO"
 
New "Load.BT_8518_M1" bus1="UC20077.1.4" phases=1 conn=delta model=2 kv=0.22 kw = 0.0 pf=0.92 status=variable vmaxpu=1.5 vminpu=0.93 daily="RES_3_DO" 
New "Load.BT_8518_M2" bus1="UC20077.1.4" phases=1 conn=delta model=3 kv=0.22 kw = 0.0 pf=0.92 status=variable vmaxpu=1.5 vminpu=0.93 daily="RES_3_DO"
 
New "Load.BT_8018_M1" bus1="UC20072.1.2.3.4" phases=3 conn=delta model=2 kv=0.38 kw = 50.547177237801584 pf=0.92 status=variable vmaxpu=1.5 vminpu=0.93 daily="RES_2_DO" 
New "Load.BT_8018_M2" bus1="UC20072.1.2.3.4" phases=3 conn=delta model=3 kv=0.38 kw = 50.547177237801584 pf=0.92 status=variable vmaxpu=1.5 vminpu=0.93 daily="RES_2_DO"
 
New "Load.BT_2811_M1" bus1="UC4902.1.2.4" phases=2 conn=delta model=2 kv=0.38 kw = 35.68036040315406 pf=0.92 status=variable vmaxpu=1.5 vminpu=0.93 daily="RES_2_DO" 
New "Load.BT_2811_M2" bus1="UC4902.1.2.4" phases=2 conn=delta model=3 kv=0.38 kw = 35.68036040315406 pf=0.92 status=variable vmaxpu=1.5 vminpu=0.93 daily="RES_2_DO"
 
New "Load.BT_945_M1" bus1="UC5720.3.4" phases=1 conn=delta model=2 kv=0.22 kw = 154.61489508033426 pf=0.92 status=variable vmaxpu=1.5 vminpu=0.93 daily="RES_2_DO" 
New "Load.BT_945_M2" bus1="UC5720.3.4" phases=1 conn=delta model=3 kv=0.22 kw = 154.61489508033426 pf=0.92 status=variable vmaxpu=1.5 vminpu=0.93 daily="RES_2_DO"
 
New "Load.BT_8517_M1" bus1="UC20014.1.2.3.4" phases=3 conn=delta model=2 kv=0.38 kw = 538.1787694142404 pf=0.92 status=variable vmaxpu=1.5 vminpu=0.93 daily="RES_2_DO" 
New "Load.BT_8517_M2" bus1="UC20014.1.2.3.4" phases=3 conn=delta model=3 kv=0.38 kw = 538.1787694142404 pf=0.92 status=variable vmaxpu=1.5 vminpu=0.93 daily="RES_2_DO"
 
New "Load.BT_1925_M1" bus1="UC3106.1.4" phases=1 conn=delta model=2 kv=0.22 kw = 516.4414410265421 pf=0.92 status=variable vmaxpu=1.5 vminpu=0.93 daily="RES_1_DO" 
New "Load.BT_1925_M2" bus1="UC3106.1.4" phases=1 conn=delta model=3 kv=0.22 kw = 516.4414410265421 pf=0.92 status=variable vmaxpu=1.5 vminpu=0.93 daily="RES_1_DO"
 
New "Load.BT_663_M1" bus1="UC14776.1.2.4" phases=2 conn=delta model=2 kv=0.38 kw = 211.86765391190139 pf=0.92 status=variable vmaxpu=1.5 vminpu=0.93 daily="COM_1_DO" 
New "Load.BT_663_M2" bus1="UC14776.1.2.4" phases=2 conn=delta model=3 kv=0.38 kw = 211.86765391190139 pf=0.92 status=variable vmaxpu=1.5 vminpu=0.93 daily="COM_1_DO"
 
New "Load.BT_663_M1" bus1="UC14776.1.4" phases=1 conn=delta model=2 kv=0.22 kw = 435.7474658661449 pf=0.92 status=variable vmaxpu=1.5 vminpu=0.93 daily="RES_1_DO" 
New "Load.BT_663_M2" bus1="UC14776.1.4" phases=1 conn=delta model=3 kv=0.22 kw = 435.7474658661449 pf=0.92 status=variable vmaxpu=1.5 vminpu=0.93 daily="RES_1_DO"
 
New "Load.BT_459_M1" bus1="UC9463.3.4" phases=1 conn=delta model=2 kv=0.22 kw = 478.71150207565034 pf=0.92 status=variable vmaxpu=1.5 vminpu=0.93 daily="RES_2_DO" 
New "Load.BT_459_M2" bus1="UC9463.3.4" phases=1 conn=delta model=3 kv=0.22 kw = 478.71150207565034 pf=0.92 status=variable vmaxpu=1.5 vminpu=0.93 daily="RES_2_DO"
 
New "Load.BT_748_M1" bus1="UC3917.3.4" phases=1 conn=delta model=2 kv=0.22 kw = 674.9534842929976 pf=0.92 status=variable vmaxpu=1.5 vminpu=0.93 daily="RES_2_DO" 
New "Load.BT_748_M2" bus1="UC3917.3.4" phases=1 conn=delta model=3 kv=0.22 kw = 674.9534842929976 pf=0.92 status=variable vmaxpu=1.5 vminpu=0.93 daily="RES_2_DO"
 
New "Load.BT_7620_M1" bus1="UC20017.1.2.3.4" phases=3 conn=delta model=2 kv=0.38 kw = 1271.3393623434886 pf=0.92 status=variable vmaxpu=1.5 vminpu=0.93 daily="RES_10_DO" 
New "Load.BT_7620_M2" bus1="UC20017.1.2.3.4" phases=3 conn=delta model=3 kv=0.38 kw = 1271.3393623434886 pf=0.92 status=variable vmaxpu=1.5 vminpu=0.93 daily="RES_10_DO"
 
New "Load.BT_2952_M1" bus1="UC20157.3.4" phases=1 conn=delta model=2 kv=0.22 kw = 0.0 pf=0.92 status=variable vmaxpu=1.5 vminpu=0.93 daily="RES_7_DO" 
New "Load.BT_2952_M2" bus1="UC20157.3.4" phases=1 conn=delta model=3 kv=0.22 kw = 0.0 pf=0.92 status=variable vmaxpu=1.5 vminpu=0.93 daily="RES_7_DO"
 
New "Load.BT_1937_M1" bus1="UC20159.1.4" phases=1 conn=delta model=2 kv=0.22 kw = 0.0 pf=0.92 status=variable vmaxpu=1.5 vminpu=0.93 daily="RES_7_DO" 
New "Load.BT_1937_M2" bus1="UC20159.1.4" phases=1 conn=delta model=3 kv=0.22 kw = 0.0 pf=0.92 status=variable vmaxpu=1.5 vminpu=0.93 daily="RES_7_DO"
 
New "Load.BT_7292_M1" bus1="UC20158.2.3.4" phases=2 conn=delta model=2 kv=0.38 kw = 0.0 pf=0.92 status=variable vmaxpu=1.5 vminpu=0.93 daily="RES_7_DO" 
New "Load.BT_7292_M2" bus1="UC20158.2.3.4" phases=2 conn=delta model=3 kv=0.38 kw = 0.0 pf=0.92 status=variable vmaxpu=1.5 vminpu=0.93 daily="RES_7_DO"
 
New "Load.BT_8649_M1" bus1="UC16131.1.2.3.4" phases=3 conn=delta model=2 kv=0.38 kw = 0.0 pf=0.92 status=variable vmaxpu=1.5 vminpu=0.93 daily="COM_5_DO" 
New "Load.BT_8649_M2" bus1="UC16131.1.2.3.4" phases=3 conn=delta model=3 kv=0.38 kw = 0.0 pf=0.92 status=variable vmaxpu=1.5 vminpu=0.93 daily="COM_5_DO"
 
New "Load.BT_7507_M1" bus1="UC16308.2.4" phases=1 conn=delta model=2 kv=0.22 kw = 0.0 pf=0.92 status=variable vmaxpu=1.5 vminpu=0.93 daily="RES_7_DO" 
New "Load.BT_7507_M2" bus1="UC16308.2.4" phases=1 conn=delta model=3 kv=0.22 kw = 0.0 pf=0.92 status=variable vmaxpu=1.5 vminpu=0.93 daily="RES_7_DO"
 
New "Load.BT_2275_M1" bus1="UC20160.2.4" phases=1 conn=delta model=2 kv=0.22 kw = 0.0 pf=0.92 status=variable vmaxpu=1.5 vminpu=0.93 daily="RES_7_DO" 
New "Load.BT_2275_M2" bus1="UC20160.2.4" phases=1 conn=delta model=3 kv=0.22 kw = 0.0 pf=0.92 status=variable vmaxpu=1.5 vminpu=0.93 daily="RES_7_DO"
 
New "Load.BT_1838_M1" bus1="UC11113.3.4" phases=1 conn=delta model=2 kv=0.22 kw = 0.0 pf=0.92 status=variable vmaxpu=1.5 vminpu=0.93 daily="COM_5_DO" 
New "Load.BT_1838_M2" bus1="UC11113.3.4" phases=1 conn=delta model=3 kv=0.22 kw = 0.0 pf=0.92 status=variable vmaxpu=1.5 vminpu=0.93 daily="COM_5_DO"
 
New "Load.BT_2861_M1" bus1="UC1579.1.4" phases=1 conn=delta model=2 kv=0.22 kw = 0.0 pf=0.92 status=variable vmaxpu=1.5 vminpu=0.93 daily="RES_3_DO" 
New "Load.BT_2861_M2" bus1="UC1579.1.4" phases=1 conn=delta model=3 kv=0.22 kw = 0.0 pf=0.92 status=variable vmaxpu=1.5 vminpu=0.93 daily="RES_3_DO"
 
New "Load.BT_7961_M1" bus1="UC15997.2.3.4" phases=2 conn=delta model=2 kv=0.38 kw = 0.0 pf=0.92 status=variable vmaxpu=1.5 vminpu=0.93 daily="RES_3_DO" 
New "Load.BT_7961_M2" bus1="UC15997.2.3.4" phases=2 conn=delta model=3 kv=0.38 kw = 0.0 pf=0.92 status=variable vmaxpu=1.5 vminpu=0.93 daily="RES_3_DO"
 
New "Load.BT_2904_M1" bus1="UC20108.3.1.4" phases=2 conn=delta model=2 kv=0.38 kw = 0.0 pf=0.92 status=variable vmaxpu=1.5 vminpu=0.93 daily="RES_3_DO" 
New "Load.BT_2904_M2" bus1="UC20108.3.1.4" phases=2 conn=delta model=3 kv=0.38 kw = 0.0 pf=0.92 status=variable vmaxpu=1.5 vminpu=0.93 daily="RES_3_DO"
 
New "Load.BT_8511_M1" bus1="UC20109.1.2.3.4" phases=3 conn=delta model=2 kv=0.38 kw = 0.0 pf=0.92 status=variable vmaxpu=1.5 vminpu=0.93 daily="RES_3_DO" 
New "Load.BT_8511_M2" bus1="UC20109.1.2.3.4" phases=3 conn=delta model=3 kv=0.38 kw = 0.0 pf=0.92 status=variable vmaxpu=1.5 vminpu=0.93 daily="RES_3_DO"
 
New "Load.BT_463_M1" bus1="UC16004.3.4" phases=1 conn=delta model=2 kv=0.22 kw = 0.0 pf=0.92 status=variable vmaxpu=1.5 vminpu=0.93 daily="RES_7_DO" 
New "Load.BT_463_M2" bus1="UC16004.3.4" phases=1 conn=delta model=3 kv=0.22 kw = 0.0 pf=0.92 status=variable vmaxpu=1.5 vminpu=0.93 daily="RES_7_DO"
 
New "Load.BT_6668_M1" bus1="UC9379.1.4" phases=1 conn=delta model=2 kv=0.22 kw = 520.3385892126635 pf=0.92 status=variable vmaxpu=1.5 vminpu=0.93 daily="RES_2_DO" 
New "Load.BT_6668_M2" bus1="UC9379.1.4" phases=1 conn=delta model=3 kv=0.22 kw = 520.3385892126635 pf=0.92 status=variable vmaxpu=1.5 vminpu=0.93 daily="RES_2_DO"
 
New "Load.BT_2037_M1" bus1="UC4021.3.4" phases=1 conn=delta model=2 kv=0.22 kw = 344.9101505638226 pf=0.92 status=variable vmaxpu=1.5 vminpu=0.93 daily="RES_2_DO" 
New "Load.BT_2037_M2" bus1="UC4021.3.4" phases=1 conn=delta model=3 kv=0.22 kw = 344.9101505638226 pf=0.92 status=variable vmaxpu=1.5 vminpu=0.93 daily="RES_2_DO"
 
New "Load.BT_1224_M1" bus1="UC1788.1.4" phases=1 conn=delta model=2 kv=0.22 kw = 398.43069116855366 pf=0.92 status=variable vmaxpu=1.5 vminpu=0.93 daily="RES_2_DO" 
New "Load.BT_1224_M2" bus1="UC1788.1.4" phases=1 conn=delta model=3 kv=0.22 kw = 398.43069116855366 pf=0.92 status=variable vmaxpu=1.5 vminpu=0.93 daily="RES_2_DO"
 
New "Load.BT_969_M1" bus1="UC15681.1.4" phases=1 conn=delta model=2 kv=0.22 kw = 318.14988026145704 pf=0.92 status=variable vmaxpu=1.5 vminpu=0.93 daily="RES_2_DO" 
New "Load.BT_969_M2" bus1="UC15681.1.4" phases=1 conn=delta model=3 kv=0.22 kw = 318.14988026145704 pf=0.92 status=variable vmaxpu=1.5 vminpu=0.93 daily="RES_2_DO"
 
New "Load.BT_969_M1" bus1="UC15681.1.4" phases=1 conn=delta model=2 kv=0.22 kw = 380.59051096697664 pf=0.92 status=variable vmaxpu=1.5 vminpu=0.93 daily="RES_2_DO" 
New "Load.BT_969_M2" bus1="UC15681.1.4" phases=1 conn=delta model=3 kv=0.22 kw = 380.59051096697664 pf=0.92 status=variable vmaxpu=1.5 vminpu=0.93 daily="RES_2_DO"
 
New "Load.BT_8360_M1" bus1="UC15017.1.2.3.4" phases=3 conn=delta model=2 kv=0.38 kw = 96.47813150469207 pf=0.92 status=variable vmaxpu=1.5 vminpu=0.93 daily="IND_13_DO" 
...